
 Hubbard

 ================================================================
 Compiled on Aug 10 2013 at 17:08:30
 Compiled using cmth.(optimised)
 VCS BASE repository version:
     78826eac355e9fa663a9b7f7bcf053545d66c12a
 Hostname:
     tycpc31
 Working directory: 
     /home/jspencer/projects/hubbard_fciqmc/test_suite/hubbard_k_nontilted_2d_fciqmc
 Started running on 10/08/2013 at 17:08:59
 ================================================================

 Input options
 -------------

hubbard_k

fciqmc

lattice
2 0
0 2
electrons 2

initial_shift 0.01
spawned_walker_length 500
walker_length 10
nreports 250
mc_cycles 25

tau 0.05
varyshift_target 200

ms 0
sym 1

 -------------

 Basis functions
 ---------------

 Spin given in units of 1/2.
 k-points given in terms of the reciprocal lattice vectors of the crystal cell.

 index   k-point        ms     <i|h|i>
     1   (  0,  0)      1     -4.00000000
     2   (  0,  0)     -1     -4.00000000
     3   (  1,  0)      1      0.00000000
     4   (  1,  0)     -1      0.00000000
     5   (  0,  1)      1      0.00000000
     6   (  0,  1)     -1      0.00000000
     7   (  1,  1)      1      4.00000000
     8   (  1,  1)     -1      4.00000000

 Number of electrons: 2
 Number of basis functions: 8

 Bit-length of integers used to store determinant bit-strings: 32
 Number of integers used to store determinant bit-strings: 1

 Symmetry information
 --------------------

 The table below gives the label and inverse of each wavevector.

 Index    k-point      Inverse
   1      (  0,  0)        1
   2      (  1,  0)        2
   3      (  0,  1)        3
   4      (  1,  1)        4

 The matrix below gives the result of k_i+k_j to within a reciprocal lattice vector.

  1  2  3  4
  2  1  4  3
  3  4  1  2
  4  3  2  1

 FCIQMC
 ------

 Memory allocated per core for main walker list (MB):    0.00
 Memory allocated per core for spawned walker lists (MB):    0.01
 Number of elements per core in main walker list: 10
 Number of elements per core in spawned walker list: 500

 Reference determinant, |D0> = | 1 2 >
 E0 = <D0|H|D0> =     -7.750000000000
 Symmetry of reference determinant: (  0,  0)
 Probability of attempting a single excitation:   0.0000
 Probability of attempting a double excitation:   1.0000
 Initial population on reference determinant:     10.0000

 Note that FCIQMC calculates the correlation energy relative to |D0>.

 Information printed out every FCIQMC report loop:

 Instant shift: the shift calculated at the end of the report loop.
 Proj. Energy: projected energy averaged over the report loop. Calculated at the end of each cycle.
 # D0: current population at the reference determinant.
 # particles: current total population of walkers.
 R_spawn: average rate of spawning across all processors.

 RNG
 ^^^

 Initialised random number generator with a seed of: 7.

 # iterations   Instant shift      \sum H_0j Nj       # D0                # particles  R_spawn  time
 #          0   1.0000000000E-02   0.0000000000E+00   1.0000000000E+01             10      n/a   n/a
           25   1.0000000000E-02  -8.0000000000E-02   1.0000000000E+01             10   0.0281  0.00
           50   1.0000000000E-02  -1.3000000000E-01   1.0000000000E+01             11   0.0244  0.00
           75   1.0000000000E-02  -2.8000000000E-01   1.0000000000E+01             11   0.0332  0.00
          100   1.0000000000E-02  -2.6000000000E-01   1.0000000000E+01             12   0.0324  0.00
          125   1.0000000000E-02  -2.1000000000E-01   1.0000000000E+01             10   0.0326  0.00
          150   1.0000000000E-02  -3.0000000000E-02   1.0000000000E+01             11   0.0096  0.00
          175   1.0000000000E-02  -1.7000000000E-01   1.0960000000E+01             11   0.0356  0.00
          200   1.0000000000E-02  -8.0000000000E-02   1.1000000000E+01             12   0.0204  0.00
          225   1.0000000000E-02  -2.3000000000E-01   1.1440000000E+01             12   0.0257  0.00
          250   1.0000000000E-02  -2.4000000000E-01   1.2720000000E+01             16   0.0287  0.00
          275   1.0000000000E-02  -2.5000000000E-01   1.3000000000E+01             13   0.0341  0.00
          300   1.0000000000E-02  -3.6000000000E-01   1.3000000000E+01             14   0.0324  0.00
          325   1.0000000000E-02  -2.9000000000E-01   1.3000000000E+01             14   0.0423  0.00
          350   1.0000000000E-02  -1.9000000000E-01   1.3000000000E+01             14   0.0229  0.00
          375   1.0000000000E-02  -1.7000000000E-01   1.3000000000E+01             14   0.0217  0.00
          400   1.0000000000E-02  -2.7000000000E-01   1.3000000000E+01             15   0.0338  0.00
          425   1.0000000000E-02  -3.3000000000E-01   1.3000000000E+01             13   0.0235  0.00
          450   1.0000000000E-02  -1.7000000000E-01   1.3800000000E+01             16   0.0283  0.00
          475   1.0000000000E-02  -3.4000000000E-01   1.4000000000E+01             17   0.0397  0.00
          500   1.0000000000E-02  -3.7000000000E-01   1.4440000000E+01             15   0.0333  0.00
          525   1.0000000000E-02  -1.9000000000E-01   1.5000000000E+01             16   0.0225  0.00
          550   1.0000000000E-02  -4.6000000000E-01   1.5760000000E+01             17   0.0401  0.00
          575   1.0000000000E-02  -3.5000000000E-01   1.6000000000E+01             17   0.0305  0.00
          600   1.0000000000E-02  -2.6000000000E-01   1.6000000000E+01             17   0.0251  0.00
          625   1.0000000000E-02  -3.2000000000E-01   1.6000000000E+01             17   0.0296  0.00
          650   1.0000000000E-02  -4.1000000000E-01   1.6440000000E+01             17   0.0264  0.00
          675   1.0000000000E-02  -5.4000000000E-01   1.8360000000E+01             21   0.0290  0.00
          700   1.0000000000E-02  -3.6000000000E-01   1.9280000000E+01             21   0.0235  0.00
          725   1.0000000000E-02  -2.9000000000E-01   2.0000000000E+01             23   0.0344  0.00
          750   1.0000000000E-02  -3.2000000000E-01   2.0000000000E+01             22   0.0285  0.00
          775   1.0000000000E-02  -3.6000000000E-01   2.0000000000E+01             20   0.0300  0.00
          800   1.0000000000E-02  -5.0000000000E-01   2.0360000000E+01             21   0.0254  0.00
          825   1.0000000000E-02  -3.8000000000E-01   2.1000000000E+01             26   0.0249  0.00
          850   1.0000000000E-02  -5.4000000000E-01   2.1880000000E+01             23   0.0362  0.00
          875   1.0000000000E-02  -4.3000000000E-01   2.2800000000E+01             27   0.0267  0.00
          900   1.0000000000E-02  -6.4000000000E-01   2.3000000000E+01             27   0.0244  0.00
          925   1.0000000000E-02  -5.3000000000E-01   2.3440000000E+01             25   0.0271  0.00
          950   1.0000000000E-02  -5.3000000000E-01   2.4600000000E+01             30   0.0244  0.00
          975   1.0000000000E-02  -3.7000000000E-01   2.5600000000E+01             29   0.0254  0.00
         1000   1.0000000000E-02  -4.6000000000E-01   2.7880000000E+01             30   0.0213  0.00
         1025   1.0000000000E-02  -5.7000000000E-01   2.8000000000E+01             31   0.0284  0.00
         1050   1.0000000000E-02  -6.1000000000E-01   2.8880000000E+01             32   0.0258  0.00
         1075   1.0000000000E-02  -7.2000000000E-01   2.9640000000E+01             31   0.0256  0.00
         1100   1.0000000000E-02  -5.2000000000E-01   3.0200000000E+01             32   0.0238  0.00
         1125   1.0000000000E-02  -5.8000000000E-01   3.1000000000E+01             32   0.0191  0.00
         1150   1.0000000000E-02  -3.1000000000E-01   3.1000000000E+01             33   0.0197  0.00
         1175   1.0000000000E-02  -6.9000000000E-01   3.2080000000E+01             37   0.0246  0.00
         1200   1.0000000000E-02  -7.2000000000E-01   3.4680000000E+01             41   0.0244  0.00
         1225   1.0000000000E-02  -9.0000000000E-01   3.7080000000E+01             41   0.0235  0.00
         1250   1.0000000000E-02  -8.0000000000E-01   3.8520000000E+01             41   0.0223  0.00
         1275   1.0000000000E-02  -6.3000000000E-01   4.0200000000E+01             44   0.0214  0.00
         1300   1.0000000000E-02  -7.9000000000E-01   4.1000000000E+01             45   0.0207  0.00
         1325   1.0000000000E-02  -7.6000000000E-01   4.1000000000E+01             46   0.0235  0.00
         1350   1.0000000000E-02  -1.0100000000E+00   4.1560000000E+01             45   0.0243  0.00
         1375   1.0000000000E-02  -7.1000000000E-01   4.3520000000E+01             45   0.0179  0.00
         1400   1.0000000000E-02  -7.1000000000E-01   4.5080000000E+01             46   0.0194  0.00
         1425   1.0000000000E-02  -8.3000000000E-01   4.6600000000E+01             51   0.0213  0.00
         1450   1.0000000000E-02  -7.1000000000E-01   4.8480000000E+01             55   0.0178  0.00
         1475   1.0000000000E-02  -1.2900000000E+00   5.1680000000E+01             57   0.0217  0.00
         1500   1.0000000000E-02  -8.6000000000E-01   5.3680000000E+01             57   0.0205  0.00
         1525   1.0000000000E-02  -9.5000000000E-01   5.6280000000E+01             60   0.0205  0.00
         1550   1.0000000000E-02  -1.2400000000E+00   5.7920000000E+01             61   0.0207  0.00
         1575   1.0000000000E-02  -9.5000000000E-01   5.9640000000E+01             64   0.0185  0.00
         1600   1.0000000000E-02  -1.2000000000E+00   6.1560000000E+01             68   0.0209  0.00
         1625   1.0000000000E-02  -1.1500000000E+00   6.3920000000E+01             68   0.0202  0.00
         1650   1.0000000000E-02  -1.1100000000E+00   6.7400000000E+01             79   0.0174  0.00
         1675   1.0000000000E-02  -1.1600000000E+00   7.2240000000E+01             84   0.0190  0.00
         1700   1.0000000000E-02  -1.5100000000E+00   7.6080000000E+01             84   0.0193  0.00
         1725   1.0000000000E-02  -1.4300000000E+00   8.1440000000E+01             87   0.0174  0.00
         1750   1.0000000000E-02  -1.5300000000E+00   8.5840000000E+01             95   0.0169  0.00
         1775   1.0000000000E-02  -1.3100000000E+00   9.0000000000E+01            100   0.0155  0.00
         1800   1.0000000000E-02  -1.6200000000E+00   9.4680000000E+01            103   0.0175  0.00
         1825   1.0000000000E-02  -1.4700000000E+00   9.9080000000E+01            106   0.0161  0.00
         1850   1.0000000000E-02  -1.8200000000E+00   1.0116000000E+02            110   0.0165  0.00
         1875   1.0000000000E-02  -2.1600000000E+00   1.0508000000E+02            114   0.0193  0.00
         1900   1.0000000000E-02  -2.0600000000E+00   1.0960000000E+02            122   0.0191  0.00
         1925   1.0000000000E-02  -1.9000000000E+00   1.1472000000E+02            124   0.0152  0.00
         1950   1.0000000000E-02  -2.1100000000E+00   1.1988000000E+02            131   0.0166  0.00
         1975   1.0000000000E-02  -2.3200000000E+00   1.2412000000E+02            134   0.0184  0.00
         2000   1.0000000000E-02  -2.5400000000E+00   1.2640000000E+02            138   0.0170  0.00
         2025   1.0000000000E-02  -2.3500000000E+00   1.2840000000E+02            141   0.0167  0.00
         2050   1.0000000000E-02  -2.4900000000E+00   1.3408000000E+02            146   0.0175  0.00
         2075   1.0000000000E-02  -2.1000000000E+00   1.3912000000E+02            154   0.0149  0.00
         2100   1.0000000000E-02  -2.4900000000E+00   1.4364000000E+02            158   0.0168  0.00
         2125   1.0000000000E-02  -3.0000000000E+00   1.5024000000E+02            171   0.0180  0.00
         2150   1.0000000000E-02  -2.8800000000E+00   1.5596000000E+02            170   0.0182  0.00
         2175   1.0000000000E-02  -3.1300000000E+00   1.6204000000E+02            174   0.0169  0.00
         2200   1.0000000000E-02  -2.9900000000E+00   1.6680000000E+02            182   0.0163  0.00
         2225   1.0000000000E-02  -3.1300000000E+00   1.7440000000E+02            192   0.0164  0.00
         2250   1.0000000000E-02  -3.5600000000E+00   1.7940000000E+02            203   0.0176  0.00
         2275   9.8034394079E-03  -3.8800000000E+00   1.8728000000E+02            204   0.0185  0.00
         2300   9.6078399961E-03  -3.8100000000E+00   1.9264000000E+02            205   0.0177  0.00
         2325   6.6017311010E-03  -3.7400000000E+00   1.9904000000E+02            221   0.0172  0.00
         2350   5.7068391908E-03  -4.0200000000E+00   2.0640000000E+02            226   0.0170  0.00
         2375   5.7068391908E-03  -4.3500000000E+00   2.1056000000E+02            226   0.0175  0.00
         2400   4.3153945474E-03  -3.8600000000E+00   2.1932000000E+02            234   0.0164  0.00
         2425   2.9707301154E-03  -4.2800000000E+00   2.2600000000E+02            242   0.0172  0.00
         2450   1.6698024472E-03  -4.2300000000E+00   2.3076000000E+02            250   0.0162  0.00
         2475   8.7769735533E-04  -4.4200000000E+00   2.3376000000E+02            255   0.0163  0.00
         2500  -2.0554098877E-04  -5.1200000000E+00   2.4084000000E+02            262   0.0194  0.00
         2525  -1.2602160224E-03  -4.7900000000E+00   2.4896000000E+02            269   0.0170  0.00
         2550  -3.5713280491E-03  -4.8400000000E+00   2.5612000000E+02            285   0.0168  0.00
         2575  -4.8149515319E-03  -5.2000000000E+00   2.6724000000E+02            294   0.0169  0.00
         2600  -4.4046915252E-03  -5.2700000000E+00   2.7364000000E+02            291   0.0172  0.00
         2625  -5.7561714283E-03  -5.5400000000E+00   2.7696000000E+02            301   0.0180  0.00
         2650  -6.1528688946E-03  -5.6700000000E+00   2.8152000000E+02            304   0.0181  0.00
         2675  -6.1528688946E-03  -5.1800000000E+00   2.8904000000E+02            304   0.0168  0.00
         2700  -7.8278317934E-03  -4.6100000000E+00   2.9064000000E+02            317   0.0141  0.00
         2725  -7.7014493818E-03  -5.5100000000E+00   2.9300000000E+02            316   0.0173  0.00
         2750  -7.8278317934E-03  -5.5700000000E+00   2.9452000000E+02            317   0.0170  0.00
         2775  -7.5746663914E-03  -5.5600000000E+00   2.9700000000E+02            315   0.0169  0.00
         2800  -7.7014493818E-03  -5.3200000000E+00   2.9944000000E+02            316   0.0160  0.00
         2825  -9.3140708689E-03  -6.2700000000E+00   3.0328000000E+02            329   0.0179  0.00
         2850  -9.7974604375E-03  -5.9300000000E+00   3.0612000000E+02            333   0.0176  0.00
         2875  -1.0393596658E-02  -5.9700000000E+00   3.1232000000E+02            338   0.0168  0.00
         2900  -1.0747059930E-02  -5.9400000000E+00   3.1712000000E+02            341   0.0171  0.00
         2925  -1.0156207237E-02  -5.7000000000E+00   3.1904000000E+02            336   0.0162  0.00
         2950  -1.1674637726E-02  -5.9300000000E+00   3.2132000000E+02            349   0.0172  0.00
         2975  -1.3247874209E-02  -5.8800000000E+00   3.2868000000E+02            363   0.0162  0.00
         3000  -1.3795078365E-02  -6.4600000000E+00   3.3316000000E+02            368   0.0171  0.00
         3025  -1.4334897624E-02  -6.9500000000E+00   3.4444000000E+02            373   0.0179  0.00
         3050  -1.4867528663E-02  -5.8800000000E+00   3.5236000000E+02            378   0.0155  0.00
         3075  -1.4334897624E-02  -6.1500000000E+00   3.5164000000E+02            373   0.0162  0.00
         3100  -1.4655326574E-02  -6.4800000000E+00   3.5188000000E+02            376   0.0167  0.00
         3125  -1.4867528663E-02  -6.2800000000E+00   3.5188000000E+02            378   0.0162  0.00
         3150  -1.5078610947E-02  -6.1700000000E+00   3.5304000000E+02            380   0.0167  0.00
         3175  -1.4011881064E-02  -6.4200000000E+00   3.5076000000E+02            370   0.0171  0.00
         3200  -1.3903626600E-02  -5.7600000000E+00   3.4920000000E+02            369   0.0153  0.00
         3225  -1.4973209042E-02  -6.3300000000E+00   3.4776000000E+02            379   0.0164  0.00
         3250  -1.4334897624E-02  -6.4200000000E+00   3.4712000000E+02            373   0.0175  0.00
         3275  -1.3795078365E-02  -6.2400000000E+00   3.4528000000E+02            368   0.0167  0.00
         3300  -1.3903626600E-02  -6.9300000000E+00   3.4588000000E+02            369   0.0178  0.00
         3325  -1.4867528663E-02  -6.4200000000E+00   3.4936000000E+02            378   0.0168  0.00
         3350  -1.3795078365E-02  -6.9100000000E+00   3.4784000000E+02            368   0.0177  0.00
         3375  -1.4227515009E-02  -6.3400000000E+00   3.4676000000E+02            372   0.0163  0.00
         3400  -1.5705255617E-02  -6.4000000000E+00   3.4724000000E+02            386   0.0168  0.00
         3425  -1.5393160406E-02  -6.7400000000E+00   3.5068000000E+02            383   0.0175  0.00
         3450  -1.4334897624E-02  -5.9800000000E+00   3.5124000000E+02            373   0.0153  0.00
         3475  -1.4548801877E-02  -6.6500000000E+00   3.4872000000E+02            375   0.0178  0.00
         3500  -1.5911974423E-02  -7.1700000000E+00   3.5440000000E+02            388   0.0180  0.00
         3525  -1.5393160406E-02  -7.0600000000E+00   3.5964000000E+02            383   0.0182  0.00
         3550  -1.4973209042E-02  -6.5500000000E+00   3.5728000000E+02            379   0.0161  0.00
         3575  -1.5288585183E-02  -6.3800000000E+00   3.5624000000E+02            382   0.0158  0.00
         3600  -1.5288585183E-02  -6.9800000000E+00   3.5604000000E+02            382   0.0178  0.00
         3625  -1.6728329289E-02  -6.5600000000E+00   3.5984000000E+02            396   0.0166  0.00
         3650  -1.5705255617E-02  -6.8500000000E+00   3.6384000000E+02            386   0.0172  0.00
         3675  -1.6117630403E-02  -5.9700000000E+00   3.6332000000E+02            390   0.0154  0.00
         3700  -1.6728329289E-02  -6.7900000000E+00   3.6032000000E+02            396   0.0174  0.00
         3725  -1.6014934583E-02  -6.6000000000E+00   3.6268000000E+02            389   0.0169  0.00
         3750  -1.7030217514E-02  -6.2800000000E+00   3.6608000000E+02            399   0.0154  0.00
         3775  -1.6117630403E-02  -6.5700000000E+00   3.7008000000E+02            390   0.0164  0.00
         3800  -1.8506399791E-02  -6.6600000000E+00   3.7224000000E+02            414   0.0163  0.00
         3825  -1.8020367080E-02  -7.9200000000E+00   3.8048000000E+02            409   0.0185  0.00
         3850  -1.8118047226E-02  -7.6500000000E+00   3.8360000000E+02            410   0.0178  0.00
         3875  -1.8409664557E-02  -7.0300000000E+00   3.8736000000E+02            413   0.0161  0.00
         3900  -1.9271973400E-02  -7.3000000000E+00   3.8916000000E+02            422   0.0169  0.00
         3925  -1.9461099048E-02  -7.7000000000E+00   3.9212000000E+02            424   0.0175  0.00
         3950  -1.8699171249E-02  -7.2100000000E+00   3.8904000000E+02            416   0.0172  0.00
         3975  -1.9081949289E-02  -7.1400000000E+00   3.8572000000E+02            420   0.0168  0.00
         4000  -1.9461099048E-02  -7.3100000000E+00   3.9108000000E+02            424   0.0166  0.00
         4025  -1.9461099048E-02  -7.1900000000E+00   3.9432000000E+02            424   0.0169  0.00
         4050  -1.9366648000E-02  -6.7000000000E+00   3.9304000000E+02            423   0.0151  0.00
         4075  -1.7725887222E-02  -7.0800000000E+00   3.8840000000E+02            406   0.0167  0.00
         4100  -1.9177074186E-02  -6.7100000000E+00   3.8640000000E+02            421   0.0157  0.00
         4125  -1.9930037595E-02  -7.6800000000E+00   3.8940000000E+02            429   0.0181  0.00
         4150  -1.8891018139E-02  -8.1500000000E+00   3.9340000000E+02            418   0.0187  0.00
         4175  -1.8891018139E-02  -6.9400000000E+00   3.9428000000E+02            418   0.0162  0.00
         4200  -1.9081949289E-02  -6.8500000000E+00   3.8900000000E+02            420   0.0166  0.00
         4225  -1.7130342723E-02  -8.0400000000E+00   3.8392000000E+02            400   0.0189  0.00
         4250  -1.8020367080E-02  -6.8400000000E+00   3.7904000000E+02            409   0.0163  0.00
         4275  -1.8312694812E-02  -7.7600000000E+00   3.7928000000E+02            412   0.0182  0.00
         4300  -1.8986597635E-02  -7.0700000000E+00   3.8056000000E+02            419   0.0165  0.00
         4325  -1.8409664557E-02  -7.0000000000E+00   3.7856000000E+02            413   0.0168  0.00
         4350  -1.8118047226E-02  -7.4300000000E+00   3.7660000000E+02            410   0.0183  0.00
         4375  -1.6728329289E-02  -6.5300000000E+00   3.7424000000E+02            396   0.0161  0.00
         4400  -1.7130342723E-02  -6.7400000000E+00   3.7468000000E+02            400   0.0164  0.00
         4425  -1.9081949289E-02  -7.1300000000E+00   3.7468000000E+02            420   0.0171  0.00
         4450  -1.6627191434E-02  -7.4200000000E+00   3.7452000000E+02            395   0.0174  0.00
         4475  -1.8215489418E-02  -6.4400000000E+00   3.7740000000E+02            411   0.0155  0.00
         4500  -1.8891018139E-02  -7.0000000000E+00   3.8224000000E+02            418   0.0170  0.00
         4525  -1.8215489418E-02  -6.8700000000E+00   3.8436000000E+02            411   0.0168  0.00
         4550  -1.7824288256E-02  -6.5600000000E+00   3.8264000000E+02            407   0.0159  0.00
         4575  -1.8409664557E-02  -7.4100000000E+00   3.8028000000E+02            413   0.0179  0.00
         4600  -1.8215489418E-02  -7.2700000000E+00   3.8208000000E+02            411   0.0167  0.00
         4625  -1.7528355957E-02  -7.7400000000E+00   3.8612000000E+02            404   0.0180  0.00
         4650  -1.8409664557E-02  -7.7600000000E+00   3.8396000000E+02            413   0.0181  0.00
         4675  -1.8506399791E-02  -7.3700000000E+00   3.8944000000E+02            414   0.0171  0.00
         4700  -1.8409664557E-02  -7.0600000000E+00   3.9092000000E+02            413   0.0164  0.00
         4725  -1.8506399791E-02  -7.7300000000E+00   3.9264000000E+02            414   0.0179  0.00
         4750  -2.0023169186E-02  -7.2900000000E+00   3.9360000000E+02            430   0.0169  0.00
         4775  -1.7725887222E-02  -7.1200000000E+00   3.9188000000E+02            406   0.0168  0.00
         4800  -1.8506399791E-02  -7.0800000000E+00   3.8884000000E+02            414   0.0171  0.00
         4825  -1.8409664557E-02  -6.8300000000E+00   3.8748000000E+02            413   0.0164  0.00
         4850  -1.8891018139E-02  -7.5400000000E+00   3.8880000000E+02            418   0.0172  0.00
         4875  -2.0760517253E-02  -7.5300000000E+00   3.9320000000E+02            438   0.0174  0.00
         4900  -1.9366648000E-02  -7.0600000000E+00   3.9828000000E+02            423   0.0169  0.00
         4925  -1.9649334689E-02  -7.2400000000E+00   3.9720000000E+02            426   0.0168  0.00
         4950  -1.9555327595E-02  -7.5000000000E+00   3.9708000000E+02            425   0.0171  0.00
         4975  -1.9649334689E-02  -6.8800000000E+00   3.9888000000E+02            426   0.0156  0.00
         5000  -2.0669088642E-02  -6.9000000000E+00   4.0124000000E+02            437   0.0154  0.00
         5025  -2.0301269958E-02  -7.1200000000E+00   4.0552000000E+02            433   0.0163  0.00
         5050  -2.1033555856E-02  -7.4000000000E+00   4.0564000000E+02            441   0.0165  0.00
         5075  -2.0208784368E-02  -7.7300000000E+00   4.0624000000E+02            432   0.0173  0.00
         5100  -2.0023169186E-02  -7.0300000000E+00   4.0584000000E+02            430   0.0160  0.00
         5125  -2.1304743336E-02  -7.5400000000E+00   4.0448000000E+02            444   0.0172  0.00
         5150  -2.1663490135E-02  -7.7900000000E+00   4.0900000000E+02            448   0.0174  0.00
         5175  -2.0760517253E-02  -7.2300000000E+00   4.1372000000E+02            438   0.0166  0.00
         5200  -2.2195648760E-02  -7.3600000000E+00   4.1080000000E+02            454   0.0165  0.00
         5225  -2.1214551640E-02  -7.9700000000E+00   4.1120000000E+02            443   0.0180  0.00
         5250  -2.0208784368E-02  -7.6300000000E+00   4.0924000000E+02            432   0.0178  0.00
         5275  -2.0116084442E-02  -7.6000000000E+00   4.0420000000E+02            431   0.0180  0.00
         5300  -2.0116084442E-02  -8.2300000000E+00   3.9948000000E+02            431   0.0189  0.00
         5325  -2.0301269958E-02  -7.3900000000E+00   4.0388000000E+02            433   0.0166  0.00
         5350  -2.0760517253E-02  -7.1800000000E+00   4.0708000000E+02            438   0.0169  0.00
         5375  -2.0669088642E-02  -8.3200000000E+00   4.0928000000E+02            437   0.0188  0.00
         5400  -2.1574104623E-02  -7.6800000000E+00   4.1156000000E+02            447   0.0168  0.00
         5425  -2.0942749915E-02  -7.8600000000E+00   4.0844000000E+02            440   0.0179  0.00
         5450  -2.0577450572E-02  -7.6000000000E+00   4.0520000000E+02            436   0.0168  0.00
         5475  -2.0023169186E-02  -7.3100000000E+00   4.0152000000E+02            430   0.0162  0.00
         5500  -2.0023169186E-02  -7.4500000000E+00   4.0224000000E+02            430   0.0167  0.00
         5525  -2.0301269958E-02  -7.0500000000E+00   4.0032000000E+02            433   0.0166  0.00
         5550  -1.9555327595E-02  -6.4400000000E+00   3.9684000000E+02            425   0.0153  0.00
         5575  -1.8891018139E-02  -7.4900000000E+00   3.9412000000E+02            418   0.0173  0.00
         5600  -1.8986597635E-02  -6.7100000000E+00   3.9112000000E+02            419   0.0162  0.00
         5625  -1.9081949289E-02  -6.7700000000E+00   3.9044000000E+02            420   0.0161  0.00
         5650  -1.9743121367E-02  -7.4900000000E+00   3.9852000000E+02            427   0.0172  0.00
         5675  -1.9177074186E-02  -6.9900000000E+00   3.9808000000E+02            421   0.0159  0.00
         5700  -1.9271973400E-02  -7.3400000000E+00   3.9340000000E+02            422   0.0174  0.00
         5725  -1.9366648000E-02  -7.8200000000E+00   3.9584000000E+02            423   0.0180  0.00
         5750  -1.9366648000E-02  -6.9000000000E+00   3.9316000000E+02            423   0.0167  0.00
         5775  -1.9461099048E-02  -7.8800000000E+00   3.8868000000E+02            424   0.0189  0.00
         5800  -1.7528355957E-02  -6.2700000000E+00   3.8592000000E+02            404   0.0155  0.00
         5825  -1.8118047226E-02  -6.9300000000E+00   3.8508000000E+02            410   0.0167  0.00
         5850  -1.8312694812E-02  -7.2400000000E+00   3.8284000000E+02            412   0.0170  0.00
         5875  -1.6929841050E-02  -6.2500000000E+00   3.8088000000E+02            398   0.0151  0.00
         5900  -1.8506399791E-02  -6.4300000000E+00   3.8284000000E+02            414   0.0156  0.00
         5925  -1.7922447814E-02  -6.6100000000E+00   3.8448000000E+02            408   0.0160  0.00
         5950  -1.7130342723E-02  -6.6500000000E+00   3.7516000000E+02            400   0.0167  0.00
         5975  -1.7030217514E-02  -6.9800000000E+00   3.6924000000E+02            399   0.0179  0.00
         6000  -1.7725887222E-02  -6.6300000000E+00   3.6980000000E+02            406   0.0164  0.00
         6025  -1.7528355957E-02  -6.7700000000E+00   3.7072000000E+02            404   0.0169  0.00
         6050  -1.7528355957E-02  -6.9700000000E+00   3.7312000000E+02            404   0.0170  0.00
         6075  -1.7922447814E-02  -7.5900000000E+00   3.7428000000E+02            408   0.0179  0.00
         6100  -1.7329844383E-02  -6.7900000000E+00   3.7876000000E+02            402   0.0161  0.00
         6125  -1.7922447814E-02  -7.2800000000E+00   3.8112000000E+02            408   0.0171  0.00
         6150  -2.0116084442E-02  -6.7600000000E+00   3.8552000000E+02            431   0.0163  0.00
         6175  -1.9081949289E-02  -8.0500000000E+00   3.8804000000E+02            420   0.0190  0.00
         6200  -1.9461099048E-02  -7.8300000000E+00   3.8788000000E+02            424   0.0184  0.00
         6225  -1.9555327595E-02  -6.4100000000E+00   3.8788000000E+02            425   0.0160  0.00
         6250  -1.7922447814E-02  -7.0100000000E+00   3.8804000000E+02            408   0.0168  0.00

 final shift =                 -0.017922447814
 final proj. energy =          -0.018065147923
 E0 + shift =                  -7.767922447814
 E0 + proj. energy =           -7.768065147923

 ================================================================
 Finished running on 10/08/2013 at 17:08:59
 Wall time:                           0.16s
 CPU time (per processor):            0.15s
 ================================================================

