
 Hubbard

 ================================================================
 Compiled on Aug 10 2013 at 17:08:30
 Compiled using cmth.(optimised)
 VCS BASE repository version:
     78826eac355e9fa663a9b7f7bcf053545d66c12a
 Hostname:
     tycpc31
 Working directory: 
     /home/jspencer/projects/hubbard_fciqmc/test_suite/hubbard_k_nontilted_2d_sfciqmc
 Started running on 10/08/2013 at 17:08:59
 ================================================================

 Input options
 -------------

hubbard_k
lattice
2 0
0 2
electrons 2
simple_fciqmc
init_pop 1
mc_cycles 50
nreports 220
tau 0.05
ms 0
sym 1
seed 5234
(Note that this is not a converged calculation, merely a quick test...)

 -------------

 Basis functions
 ---------------

 Spin given in units of 1/2.
 k-points given in terms of the reciprocal lattice vectors of the crystal cell.

 index   k-point        ms     <i|h|i>
     1   (  0,  0)      1     -4.00000000
     2   (  0,  0)     -1     -4.00000000
     3   (  1,  0)      1      0.00000000
     4   (  1,  0)     -1      0.00000000
     5   (  0,  1)      1      0.00000000
     6   (  0,  1)     -1      0.00000000
     7   (  1,  1)      1      4.00000000
     8   (  1,  1)     -1      4.00000000

 Number of electrons: 2
 Number of basis functions: 8

 Bit-length of integers used to store determinant bit-strings: 32
 Number of integers used to store determinant bit-strings: 1

 Symmetry information
 --------------------

 The table below gives the label and inverse of each wavevector.

 Index    k-point      Inverse
   1      (  0,  0)        1
   2      (  1,  0)        2
   3      (  0,  1)        3
   4      (  1,  1)        4

 The matrix below gives the result of k_i+k_j to within a reciprocal lattice vector.

  1  2  3  4
  2  1  4  3
  3  4  1  2
  4  3  2  1

 Size of determinant space
 -------------------------

 The table below gives the number of determinants for each symmetry with Ms=0.

 Symmetry index      # dets
         1                4
         2                4
         3                4
         4                4

 Simple FCIQMC
 -------------

 Using a simple (but correct) serial FCIQMC algorithm.
 Enumeration of the determinant list and evaluation of the Hamiltonian matrix for the given symmetry block and spin polarization required.
 This is slow and memory demanding: consider using the fciqmc option instead of the simple_fciqmc option.

 Considering determinants belonging to symmetry 1 with spin 0.

 Reference determinant, |D0> = | 1 2 >
 E0 = <D0|H|D0> =     -7.750000000000

 Note that FCIQMC calculates the correlation energy relative to |D0>.

 RNG
 ^^^

 Initialised random number generator with a seed of: 5234.

 # iterations   Instant shift      \sum H_0j Nj       # D0                # particles  R_spawn  time
           50   0.0000000000E+00  -5.0000000000E-03   1.0000000000E+00              1   0.0200  0.00
          100   0.0000000000E+00  -5.0000000000E-03   1.0000000000E+00              1   0.0200  0.00
          150   0.0000000000E+00  -1.0000000000E-02   1.0000000000E+00              1   0.0200  0.00
          200   0.0000000000E+00  -2.5000000000E-02   1.0600000000E+00              2   0.1400  0.00
          250   0.0000000000E+00  -2.5000000000E-02   2.0000000000E+00              3   0.0300  0.00
          300   0.0000000000E+00  -5.0000000000E-02   2.0000000000E+00              2   0.0267  0.00
          350   0.0000000000E+00  -5.0000000000E-02   2.8600000000E+00              4   0.0700  0.00
          400   0.0000000000E+00  -9.5000000000E-02   3.0000000000E+00              3   0.0350  0.00
          450   0.0000000000E+00  -1.5000000000E-02   3.0000000000E+00              3   0.0200  0.00
          500   0.0000000000E+00  -7.0000000000E-02   3.0000000000E+00              5   0.0467  0.00
          550   0.0000000000E+00  -4.5000000000E-02   3.0000000000E+00              4   0.0160  0.00
          600   0.0000000000E+00  -9.5000000000E-02   3.7200000000E+00              5   0.0500  0.00
          650   0.0000000000E+00  -7.0000000000E-02   4.0000000000E+00              4   0.0200  0.00
          700   0.0000000000E+00  -3.0000000000E-02   4.0000000000E+00              4   0.0250  0.00
          750   0.0000000000E+00   2.5000000000E-02   3.3800000000E+00              3   0.0300  0.00
          800   0.0000000000E+00  -4.0000000000E-02   3.0000000000E+00              4   0.0200  0.00
          850   0.0000000000E+00  -5.0000000000E-02   3.0000000000E+00              3   0.0150  0.00
          900   0.0000000000E+00  -9.0000000000E-02   3.7400000000E+00              4   0.0600  0.00
          950   0.0000000000E+00   1.5000000000E-02   4.1200000000E+00              5   0.0400  0.00
         1000   0.0000000000E+00  -1.3500000000E-01   5.5600000000E+00              7   0.0560  0.00
         1050   0.0000000000E+00  -1.1500000000E-01   6.0000000000E+00              6   0.0343  0.00
         1100   0.0000000000E+00  -6.5000000000E-02   6.0000000000E+00              7   0.0500  0.00
         1150   0.0000000000E+00  -7.0000000000E-02   6.0000000000E+00              7   0.0314  0.00
         1200   0.0000000000E+00  -9.5000000000E-02   5.6000000000E+00              5   0.0229  0.00
         1250   0.0000000000E+00  -9.5000000000E-02   5.0000000000E+00              5   0.0400  0.00
         1300   0.0000000000E+00  -1.5000000000E-01   5.0000000000E+00              5   0.0640  0.00
         1350   0.0000000000E+00  -5.0000000000E-02   5.0000000000E+00              5   0.0240  0.00
         1400   0.0000000000E+00  -9.5000000000E-02   5.0000000000E+00              5   0.0440  0.00
         1450   0.0000000000E+00  -3.5000000000E-02   5.0000000000E+00              5   0.0200  0.00
         1500   0.0000000000E+00  -6.0000000000E-02   5.0000000000E+00              5   0.0280  0.00
         1550   0.0000000000E+00  -1.2500000000E-01   5.6800000000E+00              6   0.0440  0.00
         1600   0.0000000000E+00  -1.3000000000E-01   6.0000000000E+00              6   0.0567  0.00
         1650   0.0000000000E+00  -8.5000000000E-02   6.0000000000E+00              7   0.0333  0.00
         1700   0.0000000000E+00  -7.0000000000E-02   6.0000000000E+00              6   0.0171  0.00
         1750   0.0000000000E+00  -1.4000000000E-01   6.5400000000E+00              7   0.0467  0.00
         1800   0.0000000000E+00  -9.5000000000E-02   7.0000000000E+00              8   0.0457  0.00
         1850   0.0000000000E+00  -2.0000000000E-01   7.0000000000E+00              7   0.0400  0.00
         1900   0.0000000000E+00  -1.9500000000E-01   7.0000000000E+00              8   0.0486  0.00
         1950   0.0000000000E+00  -8.0000000000E-02   7.0000000000E+00              7   0.0300  0.00
         2000   0.0000000000E+00  -8.5000000000E-02   7.0000000000E+00              7   0.0343  0.00
         2050   0.0000000000E+00  -1.1500000000E-01   7.0000000000E+00              7   0.0343  0.00
         2100   0.0000000000E+00  -1.4000000000E-01   7.0000000000E+00              8   0.0514  0.00
         2150   0.0000000000E+00  -1.1000000000E-01   7.0400000000E+00              9   0.0375  0.00
         2200   0.0000000000E+00  -1.3500000000E-01   8.0000000000E+00             10   0.0444  0.00
         2250   0.0000000000E+00  -1.5000000000E-01   8.0000000000E+00              9   0.0260  0.00
         2300   0.0000000000E+00  -1.1000000000E-01   8.0000000000E+00              9   0.0244  0.00
         2350   0.0000000000E+00  -1.6500000000E-01   8.0000000000E+00             10   0.0378  0.00
         2400   0.0000000000E+00  -1.0500000000E-01   8.0000000000E+00             10   0.0280  0.00
         2450   0.0000000000E+00  -9.5000000000E-02   8.0000000000E+00              8   0.0180  0.00
         2500   0.0000000000E+00  -1.4000000000E-01   8.0000000000E+00              8   0.0325  0.00
         2550   0.0000000000E+00  -1.2000000000E-01   8.0000000000E+00              8   0.0375  0.00
         2600   0.0000000000E+00  -1.3500000000E-01   8.0000000000E+00              8   0.0400  0.00
         2650   0.0000000000E+00  -1.5000000000E-01   8.4000000000E+00             11   0.0450  0.00
         2700   0.0000000000E+00  -1.5500000000E-01   9.0000000000E+00              9   0.0236  0.00
         2750   0.0000000000E+00  -1.3000000000E-01   9.0000000000E+00             10   0.0467  0.00
         2800   0.0000000000E+00  -1.6000000000E-01   9.0000000000E+00             10   0.0420  0.00
         2850   0.0000000000E+00  -1.4000000000E-01   9.0000000000E+00             10   0.0400  0.00
         2900   0.0000000000E+00  -3.2000000000E-01   9.0000000000E+00             10   0.0680  0.00
         2950   0.0000000000E+00  -2.8500000000E-01   9.0000000000E+00             10   0.0520  0.00
         3000   0.0000000000E+00  -1.4000000000E-01   9.5200000000E+00             11   0.0380  0.00
         3050   0.0000000000E+00  -2.0000000000E-01   1.0440000000E+01             13   0.0400  0.00
         3100   0.0000000000E+00  -1.7500000000E-01   1.1000000000E+01             13   0.0262  0.00
         3150   0.0000000000E+00  -1.7000000000E-01   1.1000000000E+01             13   0.0246  0.00
         3200   0.0000000000E+00  -1.4500000000E-01   1.1000000000E+01             12   0.0277  0.00
         3250   0.0000000000E+00  -2.2000000000E-01   1.1000000000E+01             12   0.0367  0.00
         3300   0.0000000000E+00  -1.9000000000E-01   1.1000000000E+01             11   0.0350  0.00
         3350   0.0000000000E+00  -1.6000000000E-01   1.1260000000E+01             14   0.0473  0.00
         3400   0.0000000000E+00  -1.9500000000E-01   1.2620000000E+01             15   0.0471  0.00
         3450   0.0000000000E+00  -2.8500000000E-01   1.4560000000E+01             18   0.0440  0.00
         3500   0.0000000000E+00  -2.4000000000E-01   1.6460000000E+01             20   0.0433  0.00
         3550   0.0000000000E+00  -3.2000000000E-01   1.7280000000E+01             19   0.0380  0.00
         3600   0.0000000000E+00  -4.1000000000E-01   1.9560000000E+01             22   0.0453  0.00
         3650   0.0000000000E+00  -3.4500000000E-01   2.0000000000E+01             21   0.0345  0.00
         3700   0.0000000000E+00  -3.6500000000E-01   2.0000000000E+01             21   0.0343  0.00
         3750   0.0000000000E+00  -4.0000000000E-01   2.0000000000E+01             21   0.0457  0.00
         3800   0.0000000000E+00  -4.2500000000E-01   1.9500000000E+01             21   0.0333  0.00
         3850   0.0000000000E+00  -3.9000000000E-01   1.9000000000E+01             19   0.0381  0.00
         3900   0.0000000000E+00  -4.2000000000E-01   1.9000000000E+01             19   0.0411  0.00
         3950   0.0000000000E+00  -2.6500000000E-01   1.9000000000E+01             21   0.0326  0.00
         4000   0.0000000000E+00  -4.3000000000E-01   1.9960000000E+01             22   0.0410  0.00
         4050   0.0000000000E+00  -5.2000000000E-01   2.0860000000E+01             23   0.0445  0.00
         4100   0.0000000000E+00  -5.5500000000E-01   2.1800000000E+01             25   0.0435  0.00
         4150   0.0000000000E+00  -4.4000000000E-01   2.3260000000E+01             25   0.0296  0.00
         4200   0.0000000000E+00  -4.4000000000E-01   2.4220000000E+01             30   0.0408  0.00
         4250   0.0000000000E+00  -5.3000000000E-01   2.6400000000E+01             28   0.0347  0.00
         4300   0.0000000000E+00  -4.6000000000E-01   2.7000000000E+01             28   0.0314  0.00
         4350   0.0000000000E+00  -5.9000000000E-01   2.9200000000E+01             31   0.0429  0.00
         4400   0.0000000000E+00  -5.5000000000E-01   3.1340000000E+01             35   0.0361  0.00
         4450   0.0000000000E+00  -7.3000000000E-01   3.2600000000E+01             37   0.0383  0.00
         4500   0.0000000000E+00  -6.2000000000E-01   3.5420000000E+01             38   0.0378  0.00
         4550   0.0000000000E+00  -6.8500000000E-01   3.7000000000E+01             41   0.0358  0.00
         4600   0.0000000000E+00  -8.0500000000E-01   3.7420000000E+01             42   0.0429  0.00
         4650   0.0000000000E+00  -7.8000000000E-01   3.8080000000E+01             44   0.0400  0.00
         4700   0.0000000000E+00  -8.8500000000E-01   3.9300000000E+01             46   0.0373  0.00
         4750   0.0000000000E+00  -8.8000000000E-01   4.3360000000E+01             51   0.0400  0.00
         4800   0.0000000000E+00  -9.5500000000E-01   4.5920000000E+01             50   0.0357  0.00
         4850   0.0000000000E+00  -7.1500000000E-01   4.7500000000E+01             50   0.0308  0.00
         4900   0.0000000000E+00  -1.0500000000E+00   5.0160000000E+01             55   0.0436  0.00
         4950   0.0000000000E+00  -9.3500000000E-01   5.2140000000E+01             57   0.0360  0.00
         5000   0.0000000000E+00  -1.0750000000E+00   5.5140000000E+01             63   0.0404  0.00
         5050   0.0000000000E+00  -1.1900000000E+00   6.0440000000E+01             68   0.0429  0.00
         5100   0.0000000000E+00  -1.4000000000E+00   6.5460000000E+01             73   0.0394  0.00
         5150   0.0000000000E+00  -1.4200000000E+00   7.1000000000E+01             83   0.0436  0.00
         5200   0.0000000000E+00  -1.4550000000E+00   7.7980000000E+01             83   0.0369  0.00
         5250   0.0000000000E+00  -1.4400000000E+00   8.2220000000E+01             90   0.0369  0.00
         5300   0.0000000000E+00  -1.5000000000E+00   8.4880000000E+01             94   0.0311  0.00
         5350   0.0000000000E+00  -1.8350000000E+00   8.9740000000E+01            104   0.0404  0.00
         5400   0.0000000000E+00  -1.7700000000E+00   9.6560000000E+01            106   0.0340  0.00
         5450   0.0000000000E+00  -1.7800000000E+00   1.0410000000E+02            112   0.0338  0.00
         5500   0.0000000000E+00  -2.0100000000E+00   1.0870000000E+02            120   0.0364  0.00
         5550   0.0000000000E+00  -1.9950000000E+00   1.1390000000E+02            119   0.0338  0.00
         5600   0.0000000000E+00  -2.1550000000E+00   1.1794000000E+02            131   0.0383  0.00
         5650   0.0000000000E+00  -2.1300000000E+00   1.2380000000E+02            136   0.0328  0.00
         5700   0.0000000000E+00  -2.4100000000E+00   1.2890000000E+02            142   0.0363  0.00
         5750   0.0000000000E+00  -2.3900000000E+00   1.3046000000E+02            142   0.0323  0.00
         5800   0.0000000000E+00  -2.5700000000E+00   1.3352000000E+02            149   0.0365  0.00
         5850   0.0000000000E+00  -2.4750000000E+00   1.4088000000E+02            158   0.0342  0.00
         5900   0.0000000000E+00  -2.7550000000E+00   1.4794000000E+02            161   0.0328  0.00
         5950   0.0000000000E+00  -2.6350000000E+00   1.5332000000E+02            170   0.0338  0.00
         6000   0.0000000000E+00  -3.0200000000E+00   1.6068000000E+02            177   0.0347  0.00
         6050   0.0000000000E+00  -3.2650000000E+00   1.6858000000E+02            187   0.0369  0.00
         6100   0.0000000000E+00  -3.5550000000E+00   1.8162000000E+02            200   0.0370  0.00
         6150   0.0000000000E+00  -3.3150000000E+00   1.8874000000E+02            202   0.0331  0.00
         6200   0.0000000000E+00  -3.5800000000E+00   1.9428000000E+02            214   0.0355  0.00
         6250   0.0000000000E+00  -3.8700000000E+00   2.0456000000E+02            228   0.0358  0.00
         6300   0.0000000000E+00  -3.7950000000E+00   2.1350000000E+02            239   0.0329  0.00
         6350   0.0000000000E+00  -3.8400000000E+00   2.2340000000E+02            242   0.0309  0.00
         6400   0.0000000000E+00  -4.7350000000E+00   2.3168000000E+02            261   0.0383  0.00
         6450   0.0000000000E+00  -4.3300000000E+00   2.4258000000E+02            266   0.0333  0.00
         6500   0.0000000000E+00  -4.7500000000E+00   2.5360000000E+02            275   0.0353  0.00
         6550   0.0000000000E+00  -5.2000000000E+00   2.6414000000E+02            294   0.0369  0.00
         6600   0.0000000000E+00  -5.3850000000E+00   2.8488000000E+02            315   0.0364  0.00
         6650   0.0000000000E+00  -5.4900000000E+00   2.9766000000E+02            325   0.0337  0.00
         6700   0.0000000000E+00  -5.8100000000E+00   3.1142000000E+02            345   0.0353  0.00
         6750   0.0000000000E+00  -6.3100000000E+00   3.2618000000E+02            358   0.0357  0.00
         6800   0.0000000000E+00  -6.4500000000E+00   3.4238000000E+02            373   0.0357  0.00
         6850   0.0000000000E+00  -6.7950000000E+00   3.6156000000E+02            398   0.0357  0.00
         6900   0.0000000000E+00  -7.4450000000E+00   3.8486000000E+02            426   0.0374  0.00
         6950   0.0000000000E+00  -7.1200000000E+00   4.0702000000E+02            446   0.0331  0.00
         7000   0.0000000000E+00  -7.5700000000E+00   4.2734000000E+02            466   0.0340  0.00
         7050   0.0000000000E+00  -8.4000000000E+00   4.4948000000E+02            505   0.0360  0.00
         7100   0.0000000000E+00  -8.6100000000E+00   4.7628000000E+02            525   0.0334  0.00
         7150   0.0000000000E+00  -9.0850000000E+00   4.9568000000E+02            552   0.0342  0.00
         7200   0.0000000000E+00  -9.4750000000E+00   5.1326000000E+02            559   0.0330  0.00
         7250   0.0000000000E+00  -9.9650000000E+00   5.3554000000E+02            581   0.0353  0.00
         7300   0.0000000000E+00  -1.0360000000E+01   5.5798000000E+02            612   0.0353  0.00
         7350   0.0000000000E+00  -1.1080000000E+01   5.8408000000E+02            639   0.0351  0.00
         7400   0.0000000000E+00  -1.1600000000E+01   6.0894000000E+02            669   0.0360  0.00
         7450   0.0000000000E+00  -1.0835000000E+01   6.3100000000E+02            675   0.0312  0.00
         7500   0.0000000000E+00  -1.1840000000E+01   6.5556000000E+02            725   0.0351  0.00
         7550   0.0000000000E+00  -1.2985000000E+01   6.9002000000E+02            770   0.0362  0.00
         7600   0.0000000000E+00  -1.2665000000E+01   7.2436000000E+02            788   0.0319  0.00
         7650   0.0000000000E+00  -1.3545000000E+01   7.5222000000E+02            826   0.0338  0.00
         7700   0.0000000000E+00  -1.4020000000E+01   7.8308000000E+02            858   0.0337  0.00
         7750   0.0000000000E+00  -1.5175000000E+01   8.1134000000E+02            898   0.0348  0.00
         7800   0.0000000000E+00  -1.5690000000E+01   8.5392000000E+02            931   0.0344  0.00
         7850   0.0000000000E+00  -1.6755000000E+01   8.9190000000E+02            978   0.0353  0.00
         7900   0.0000000000E+00  -1.7430000000E+01   9.2968000000E+02           1021   0.0351  0.00
         7950   0.0000000000E+00  -1.8770000000E+01   9.6994000000E+02           1058   0.0356  0.00
         8000   0.0000000000E+00  -1.8735000000E+01   1.0117200000E+03           1108   0.0350  0.00
         8050   0.0000000000E+00  -1.9840000000E+01   1.0605600000E+03           1157   0.0353  0.00
         8100   0.0000000000E+00  -2.0540000000E+01   1.1068600000E+03           1229   0.0353  0.00
         8150   0.0000000000E+00  -2.1660000000E+01   1.1614600000E+03           1283   0.0348  0.00
         8200   0.0000000000E+00  -2.1940000000E+01   1.2205200000E+03           1349   0.0343  0.00
         8250   0.0000000000E+00  -2.4245000000E+01   1.2810400000E+03           1412   0.0353  0.00
         8300   0.0000000000E+00  -2.4450000000E+01   1.3502800000E+03           1477   0.0341  0.00
         8350   0.0000000000E+00  -2.5775000000E+01   1.4199200000E+03           1563   0.0348  0.00
         8400   0.0000000000E+00  -2.8050000000E+01   1.4873200000E+03           1641   0.0354  0.00
         8450   0.0000000000E+00  -2.8080000000E+01   1.5522600000E+03           1717   0.0339  0.00
         8500   0.0000000000E+00  -2.9490000000E+01   1.6218000000E+03           1783   0.0335  0.00
         8550   0.0000000000E+00  -3.1380000000E+01   1.6980600000E+03           1877   0.0349  0.00
         8600   0.0000000000E+00  -3.3030000000E+01   1.7867600000E+03           1972   0.0348  0.00
         8650   0.0000000000E+00  -3.5300000000E+01   1.8707600000E+03           2058   0.0350  0.00
         8700   0.0000000000E+00  -3.6305000000E+01   1.9535200000E+03           2149   0.0346  0.00
         8750   0.0000000000E+00  -3.8375000000E+01   2.0396600000E+03           2238   0.0350  0.00
         8800   0.0000000000E+00  -3.8625000000E+01   2.1221600000E+03           2338   0.0341  0.00
         8850   0.0000000000E+00  -4.2390000000E+01   2.2220600000E+03           2444   0.0355  0.00
         8900   0.0000000000E+00  -4.2840000000E+01   2.3214200000E+03           2571   0.0345  0.00
         8950   0.0000000000E+00  -4.5455000000E+01   2.4335800000E+03           2674   0.0349  0.00
         9000   0.0000000000E+00  -4.8205000000E+01   2.5466600000E+03           2806   0.0355  0.00
         9050   0.0000000000E+00  -4.9360000000E+01   2.6679000000E+03           2938   0.0346  0.00
         9100   0.0000000000E+00  -5.1450000000E+01   2.7943400000E+03           3090   0.0347  0.00
         9150   0.0000000000E+00  -5.3300000000E+01   2.9244400000E+03           3201   0.0339  0.00
         9200   0.0000000000E+00  -5.6290000000E+01   3.0568000000E+03           3369   0.0348  0.00
         9250   0.0000000000E+00  -6.0450000000E+01   3.2019000000E+03           3514   0.0354  0.00
         9300   0.0000000000E+00  -6.2450000000E+01   3.3585200000E+03           3675   0.0349  0.00
         9350   0.0000000000E+00  -6.5220000000E+01   3.5170800000E+03           3854   0.0352  0.00
         9400   0.0000000000E+00  -6.9180000000E+01   3.6883800000E+03           4068   0.0355  0.00
         9450   0.0000000000E+00  -7.0585000000E+01   3.8610000000E+03           4234   0.0343  0.00
         9500   0.0000000000E+00  -7.5805000000E+01   4.0364000000E+03           4450   0.0353  0.00
         9550   0.0000000000E+00  -7.7970000000E+01   4.2371600000E+03           4660   0.0344  0.00
         9600   0.0000000000E+00  -8.0700000000E+01   4.4444000000E+03           4897   0.0345  0.00
         9650   0.0000000000E+00  -8.5615000000E+01   4.6666400000E+03           5148   0.0346  0.00
         9700   0.0000000000E+00  -9.0595000000E+01   4.8743600000E+03           5356   0.0345  0.00
         9750   0.0000000000E+00  -9.5965000000E+01   5.1100800000E+03           5604   0.0353  0.00
         9800   0.0000000000E+00  -9.8995000000E+01   5.3572400000E+03           5901   0.0349  0.00
         9850   0.0000000000E+00  -1.0352500000E+02   5.6045600000E+03           6186   0.0344  0.00
         9900   0.0000000000E+00  -1.0743500000E+02   5.8576400000E+03           6429   0.0340  0.00
         9950   0.0000000000E+00  -1.1496000000E+02   6.1306800000E+03           6735   0.0353  0.00
        10000   0.0000000000E+00  -1.1978500000E+02   6.4109000000E+03           7088   0.0352  0.00
        10050   0.0000000000E+00  -1.2205500000E+02   6.7362400000E+03           7397   0.0340  0.00
        10100   0.0000000000E+00  -1.3159500000E+02   7.0988000000E+03           7870   0.0353  0.00
        10150   0.0000000000E+00  -1.3869500000E+02   7.4615200000E+03           8187   0.0346  0.00
        10200   0.0000000000E+00  -1.4480500000E+02   7.8180400000E+03           8580   0.0348  0.00
        10250   0.0000000000E+00  -1.5142000000E+02   8.1749800000E+03           8983   0.0347  0.00
        10300   0.0000000000E+00  -1.5854000000E+02   8.5356600000E+03           9390   0.0347  0.00
        10350   0.0000000000E+00  -1.6416000000E+02   8.9373000000E+03           9782   0.0346  0.00
        10400   0.0000000000E+00  -1.7365000000E+02   9.3405800000E+03          10269   0.0350  0.00
        10450  -9.7311354682E-04  -1.8132500000E+02   9.7808800000E+03          10781   0.0350  0.00
        10500  -1.7927439813E-03  -1.9100000000E+02   1.0257720000E+04          11232   0.0347  0.00
        10550  -2.6859593979E-03  -1.9689000000E+02   1.0702600000E+04          11745   0.0345  0.00
        10600  -3.4461260705E-03  -2.0565000000E+02   1.1119980000E+04          12200   0.0346  0.00
        10650  -4.1056239295E-03  -2.1511000000E+02   1.1554100000E+04          12609   0.0347  0.00
        10700  -5.0096187408E-03  -2.2356000000E+02   1.2027160000E+04          13192   0.0352  0.00
        10750  -5.6995221342E-03  -2.3145500000E+02   1.2495800000E+04          13655   0.0346  0.00
        10800  -6.3550823530E-03  -2.3903500000E+02   1.2923840000E+04          14110   0.0345  0.00
        10850  -6.9651027715E-03  -2.4613500000E+02   1.3360320000E+04          14547   0.0343  0.00
        10900  -7.6383212373E-03  -2.5329500000E+02   1.3768280000E+04          15045   0.0345  0.00
        10950  -8.1928745106E-03  -2.6474500000E+02   1.4185820000E+04          15468   0.0346  0.00
        11000  -8.6289949980E-03  -2.7011500000E+02   1.4578640000E+04          15809   0.0343  0.00

 final shift =                 -0.008628994998
 final proj. energy =          -0.018528134312
 E0 + shift =                  -7.758628994998
 E0 + proj. energy =           -7.768528134312

 ================================================================
 Finished running on 10/08/2013 at 17:09:00
 Wall time:                           0.69s
 CPU time (per processor):            0.69s
 ================================================================

